*SPEF "1481-1998"
*DESIGN "FloatingAdder_Integration"
*DATE "Fri Mar 10 00:43:32 2017"
*VENDOR "Synopsys, Inc."
*PROGRAM "icc_shell"
*VERSION "G-2012.06-ICC-SP2"
*DESIGN_FLOW "PIN_CAP NONE"
*DIVIDER /
*DELIMITER :
*BUS_DELIMITER [ ]
*T_UNIT 1 NS
*C_UNIT 1 FF
*R_UNIT 1 OHM
*L_UNIT 1 HENRY

*NAME_MAP
*1 input1[0]
*2 VDD
*3 VSS
*4 input1[8]
*5 input1[7]
*6 input1[6]
*7 input1[5]
*8 input1[4]
*9 input1[3]
*10 input1[2]
*11 input1[1]
*12 input1[16]
*13 input1[15]
*14 input1[14]
*15 input1[13]
*16 input1[12]
*17 input1[11]
*18 input1[10]
*19 input1[9]
*20 input1[24]
*21 input1[23]
*22 input1[22]
*23 input1[21]
*24 input1[20]
*25 input1[19]
*26 input1[18]
*27 input1[17]
*28 input2[0]
*29 input1[31]
*30 input1[30]
*31 input1[29]
*32 input1[28]
*33 input1[27]
*34 input1[26]
*35 input1[25]
*36 input2[8]
*37 input2[7]
*38 input2[6]
*39 input2[5]
*40 input2[4]
*41 input2[3]
*42 input2[2]
*43 input2[1]
*44 input2[16]
*45 input2[15]
*46 input2[14]
*47 input2[13]
*48 input2[12]
*49 input2[11]
*50 input2[10]
*51 input2[9]
*52 input2[24]
*53 input2[23]
*54 input2[22]
*55 input2[21]
*56 input2[20]
*57 input2[19]
*58 input2[18]
*59 input2[17]
*60 output1[0]
*61 input2[31]
*62 input2[30]
*63 input2[29]
*64 input2[28]
*65 input2[27]
*66 input2[26]
*67 input2[25]
*68 output1[8]
*69 output1[7]
*70 output1[6]
*71 output1[5]
*72 output1[4]
*73 output1[3]
*74 output1[2]
*75 output1[1]
*76 output1[16]
*77 output1[15]
*78 output1[14]
*79 output1[13]
*80 output1[12]
*81 output1[11]
*82 output1[10]
*83 output1[9]
*84 output1[24]
*85 output1[23]
*86 output1[22]
*87 output1[21]
*88 output1[20]
*89 output1[19]
*90 output1[18]
*91 output1[17]
*92 clk
*93 output1[31]
*94 output1[30]
*95 output1[29]
*96 output1[28]
*97 output1[27]
*98 output1[26]
*99 output1[25]
*100 FloatingPointAdder1/sra_56/n184
*101 FloatingPointAdder1/sra_56/U430
*102 FloatingPointAdder1/sra_56/U385
*103 FloatingPointAdder1/sra_56/U135
*104 FloatingPointAdder1/sra_56/U107
*105 FloatingPointAdder1/sra_56/U15
*106 FloatingPointAdder1/sra_56/n188
*107 FloatingPointAdder1/sra_56/U413
*108 FloatingPointAdder1/sra_56/U333
*109 FloatingPointAdder1/sra_56/U25
*110 FloatingPointAdder1/sra_56/n209
*111 FloatingPointAdder1/sra_56/U104
*112 FloatingPointAdder1/sra_56/U3
*113 FloatingPointAdder1/sra_56/U182
*114 FloatingPointAdder1/sra_56/U175
*115 FloatingPointAdder1/sra_56/U166
*116 FloatingPointAdder1/sra_56/U162
*117 FloatingPointAdder1/sra_56/U157
*118 FloatingPointAdder1/sra_56/U149
*119 FloatingPointAdder1/sra_56/U128
*120 input_reg2\[12\]
*121 FloatingPointAdder1/sra_56/U428
*122 FloatingPointAdder1/sra_56/U222
*123 FloatingPointAdder1/U367
*124 input_reg2_reg_12_
*125 FloatingPointAdder1/sra_56/n394
*126 FloatingPointAdder1/sra_56/U200
*127 input_reg2\[8\]
*128 FloatingPointAdder1/sra_56/U427
*129 FloatingPointAdder1/sra_56/U223
*130 FloatingPointAdder1/U88
*131 input_reg2_reg_8_
*132 FloatingPointAdder1/sra_56/n391
*133 FloatingPointAdder1/sra_56/U324
*134 FloatingPointAdder1/sra_56/n99
*135 FloatingPointAdder1/sra_56/U268
*136 FloatingPointAdder1/sra_56/U103
*137 FloatingPointAdder1/sra_56/U114
*138 FloatingPointAdder1/sra_56/U183
*139 FloatingPointAdder1/sra_56/U184
*140 FloatingPointAdder1/sra_56/U198
*141 FloatingPointAdder1/sra_56/U338
*142 FloatingPointAdder1/sra_56/U406
*143 FloatingPointAdder1/sra_56/U18
*144 input_reg2\[4\]
*145 FloatingPointAdder1/sra_56/U425
*146 FloatingPointAdder1/sra_56/U224
*147 FloatingPointAdder1/U69
*148 FloatingPointAdder1/U68
*149 input_reg2_reg_4_
*150 FloatingPointAdder1/sra_56/n386
*151 FloatingPointAdder1/sra_56/U296
*152 FloatingPointAdder1/sra_56/n377
*153 FloatingPointAdder1/sra_56/U424
*154 FloatingPointAdder1/sra_56/U261
*155 FloatingPointAdder1/sra_56/U257
*156 FloatingPointAdder1/sra_56/U52
*157 FloatingPointAdder1/sra_56/n376
*158 FloatingPointAdder1/sra_56/U401
*159 FloatingPointAdder1/sra_56/U111
*160 FloatingPointAdder1/sra_56/n364
*161 FloatingPointAdder1/sra_56/U423
*162 FloatingPointAdder1/sra_56/U367
*163 FloatingPointAdder1/sra_56/U321
*164 FloatingPointAdder1/sra_56/U318
*165 FloatingPointAdder1/sra_56/U315
*166 FloatingPointAdder1/sra_56/U125
*167 FloatingPointAdder1/sra_56/U109
*168 FloatingPointAdder1/sra_56/n126
*169 FloatingPointAdder1/sra_56/U422
*170 FloatingPointAdder1/sra_56/U409
*171 FloatingPointAdder1/sra_56/U195
*172 FloatingPointAdder1/sra_56/U188
*173 FloatingPointAdder1/sra_56/n372
*174 FloatingPointAdder1/sra_56/n344
*175 FloatingPointAdder1/sra_56/U421
*176 FloatingPointAdder1/sra_56/U186
*177 FloatingPointAdder1/sra_56/n345
*178 FloatingPointAdder1/sra_56/U310
*179 FloatingPointAdder1/sra_56/n346
*180 FloatingPointAdder1/sra_56/U325
*181 FloatingPointAdder1/sra_56/n343
*182 FloatingPointAdder1/sra_56/U420
*183 FloatingPointAdder1/sra_56/n4
*184 FloatingPointAdder1/sra_56/U262
*185 FloatingPointAdder1/sra_56/U219
*186 FloatingPointAdder1/sra_56/U106
*187 FloatingPointAdder1/sra_56/U105
*188 FloatingPointAdder1/sra_56/U2
*189 FloatingPointAdder1/sra_56/n329
*190 FloatingPointAdder1/sra_56/U241
*191 FloatingPointAdder1/sra_56/n65
*192 FloatingPointAdder1/sra_56/U398
*193 FloatingPointAdder1/sra_56/U292
*194 FloatingPointAdder1/sra_56/U400
*195 FloatingPointAdder1/sra_56/U399
*196 FloatingPointAdder1/sra_56/U397
*197 FloatingPointAdder1/sra_56/U396
*198 FloatingPointAdder1/sra_56/U326
*199 FloatingPointAdder1/sra_56/U151
*200 FloatingPointAdder1/sra_56/U127
*201 FloatingPointAdder1/sra_56/U123
*202 FloatingPointAdder1/sra_56/U113
*203 FloatingPointAdder1/sra_56/U270
*204 FloatingPointAdder1/sra_56/U269
*205 FloatingPointAdder1/sra_56/U240
*206 FloatingPointAdder1/sra_56/U14
*207 FloatingPointAdder1/sra_56/n194
*208 FloatingPointAdder1/sra_56/U419
*209 FloatingPointAdder1/sra_56/U181
*210 FloatingPointAdder1/sra_56/n295
*211 FloatingPointAdder1/sra_56/U213
*212 input_reg2\[16\]
*213 FloatingPointAdder1/sra_56/U418
*214 FloatingPointAdder1/sra_56/U226
*215 FloatingPointAdder1/U371
*216 input_reg2_reg_16_
*217 FloatingPointAdder1/sra_56/n293
*218 FloatingPointAdder1/sra_56/U192
*219 input_reg2\[20\]
*220 FloatingPointAdder1/sra_56/U417
*221 FloatingPointAdder1/sra_56/U225
*222 FloatingPointAdder1/U375
*223 input_reg2_reg_20_
*224 FloatingPointAdder1/sra_56/n288
*225 FloatingPointAdder1/sra_56/U199
*226 FloatingPointAdder1/sra_56/n102
*227 FloatingPointAdder1/sra_56/U416
*228 FloatingPointAdder1/sra_56/U407
*229 FloatingPointAdder1/sra_56/U278
*230 FloatingPointAdder1/sra_56/n154
*231 FloatingPointAdder1/sra_56/U388
*232 FloatingPointAdder1/sra_56/n120
*233 FloatingPointAdder1/sra_56/U415
*234 FloatingPointAdder1/sra_56/U343
*235 FloatingPointAdder1/sra_56/U155
*236 FloatingPointAdder1/sra_56/n179
*237 FloatingPointAdder1/sra_56/n190
*238 FloatingPointAdder1/sra_56/U414
*239 FloatingPointAdder1/sra_56/U206
*240 FloatingPointAdder1/sra_56/n106
*241 FloatingPointAdder1/sra_56/U246
*242 FloatingPointAdder1/sra_56/U196
*243 FloatingPointAdder1/sra_56/U189
*244 FloatingPointAdder1/sra_56/U36
*245 FloatingPointAdder1/sra_56/U12
*246 FloatingPointAdder1/sra_56/U35
*247 FloatingPointAdder1/N107
*248 FloatingPointAdder1/sra_56/n186
*249 FloatingPointAdder1/sra_56/U300
*250 FloatingPointAdder1/sra_56/n136
*251 FloatingPointAdder1/sra_56/U412
*252 FloatingPointAdder1/sra_56/U410
*253 FloatingPointAdder1/sra_56/U391
*254 FloatingPointAdder1/sra_56/n176
*255 FloatingPointAdder1/sra_56/U245
*256 FloatingPointAdder1/sra_56/n132
*257 FloatingPointAdder1/sra_56/U411
*258 FloatingPointAdder1/sra_56/U389
*259 FloatingPointAdder1/sra_56/n162
*260 FloatingPointAdder1/sra_56/U205
*261 FloatingPointAdder1/sra_56/n135
*262 FloatingPointAdder1/sra_56/U55
*263 FloatingPointAdder1/sra_56/n60
*264 FloatingPointAdder1/sra_56/U124
*265 FloatingPointAdder1/sra_56/n131
*266 FloatingPointAdder1/sra_56/U193
*267 FloatingPointAdder1/sra_56/n129
*268 FloatingPointAdder1/sra_56/U408
*269 FloatingPointAdder1/sra_56/U108
*270 FloatingPointAdder1/sra_56/n128
*271 FloatingPointAdder1/sra_56/U187
*272 FloatingPointAdder1/sra_56/n100
*273 FloatingPointAdder1/sra_56/n18
*274 FloatingPointAdder1/sra_56/U39
*275 FloatingPointAdder1/sra_56/n91
*276 FloatingPointAdder1/sra_56/U247
*277 FloatingPointAdder1/N52
*278 FloatingPointAdder1/sra_56/U405
*279 FloatingPointAdder1/sub_49/U69
*280 FloatingPointAdder1/U383
*281 FloatingPointAdder1/U322
*282 FloatingPointAdder1/sra_56/n46
*283 FloatingPointAdder1/sra_56/U404
*284 FloatingPointAdder1/sra_56/U402
*285 FloatingPointAdder1/sra_56/U403
*286 FloatingPointAdder1/sra_56/U9
*287 FloatingPointAdder1/sra_56/U4
*288 FloatingPointAdder1/sra_56/n402
*289 FloatingPointAdder1/sra_56/U110
*290 FloatingPointAdder1/sra_56/U74
*291 FloatingPointAdder1/N56
*292 FloatingPointAdder1/sub_49/U59
*293 FloatingPointAdder1/U379
*294 FloatingPointAdder1/U107
*295 FloatingPointAdder1/N55
*296 FloatingPointAdder1/sub_49/U56
*297 FloatingPointAdder1/U380
*298 FloatingPointAdder1/U8
*299 FloatingPointAdder1/sra_56/n375
*300 FloatingPointAdder1/sra_56/U395
*301 FloatingPointAdder1/sra_56/U101
*302 FloatingPointAdder1/sra_56/U11
*303 FloatingPointAdder1/N60
*304 FloatingPointAdder1/U384
*305 FloatingPointAdder1/U321
*306 FloatingPointAdder1/U3
*307 FloatingPointAdder1/sub_49/U54
*308 FloatingPointAdder1/sra_52/U194
*309 FloatingPointAdder1/sra_52/U192
*310 FloatingPointAdder1/sra_52/U91
*311 FloatingPointAdder1/sra_52/U88
*312 FloatingPointAdder1/sra_56/n406
*313 FloatingPointAdder1/N51
*314 FloatingPointAdder1/sra_56/U288
*315 FloatingPointAdder1/sub_49/U5
*316 FloatingPointAdder1/sra_56/n405
*317 FloatingPointAdder1/sra_56/U51
*318 FloatingPointAdder1/sra_56/U48
*319 FloatingPointAdder1/sra_56/U47
*320 FloatingPointAdder1/sra_56/n374
*321 FloatingPointAdder1/sra_56/n382
*322 FloatingPointAdder1/sra_56/U307
*323 FloatingPointAdder1/sra_56/n381
*324 FloatingPointAdder1/sra_56/U331
*325 FloatingPointAdder1/sra_56/n380
*326 FloatingPointAdder1/sra_56/U30
*327 FloatingPointAdder1/sra_56/n89
*328 FloatingPointAdder1/sra_56/U258
*329 FloatingPointAdder1/sra_56/n189
*330 FloatingPointAdder1/sra_56/U34
*331 FloatingPointAdder1/sra_56/n146
*332 FloatingPointAdder1/sra_56/U317
*333 FloatingPointAdder1/sra_56/n185
*334 FloatingPointAdder1/sra_56/U68
*335 FloatingPointAdder1/sra_56/n161
*336 FloatingPointAdder1/sra_56/U152
*337 FloatingPointAdder1/sra_56/n187
*338 FloatingPointAdder1/sra_56/n119
*339 FloatingPointAdder1/sra_56/U163
*340 FloatingPointAdder1/sra_56/n114
*341 FloatingPointAdder1/sra_56/U176
*342 FloatingPointAdder1/sra_56/n177
*343 FloatingPointAdder1/sra_56/U72
*344 FloatingPointAdder1/sra_56/n399
*345 FloatingPointAdder1/sra_56/U122
*346 FloatingPointAdder1/sra_56/n156
*347 FloatingPointAdder1/sra_56/U100
*348 FloatingPointAdder1/sra_56/n31
*349 FloatingPointAdder1/sra_56/U394
*350 FloatingPointAdder1/sra_56/U63
*351 FloatingPointAdder1/sra_56/U5
*352 FloatingPointAdder1/sra_56/n67
*353 FloatingPointAdder1/sra_56/U8
*354 FloatingPointAdder1/sra_56/U327
*355 FloatingPointAdder1/sra_56/U312
*356 FloatingPointAdder1/sra_56/U273
*357 FloatingPointAdder1/sra_56/U272
*358 FloatingPointAdder1/sra_56/U271
*359 FloatingPointAdder1/sra_56/U59
*360 FloatingPointAdder1/sra_56/n181
*361 FloatingPointAdder1/sra_56/U323
*362 FloatingPointAdder1/sra_56/U78
*363 FloatingPointAdder1/sra_56/n68
*364 FloatingPointAdder1/sra_56/U373
*365 FloatingPointAdder1/sra_56/U370
*366 FloatingPointAdder1/sra_56/U19
*367 FloatingPointAdder1/sra_56/n397
*368 FloatingPointAdder1/sra_56/U393
*369 FloatingPointAdder1/sra_56/U148
*370 FloatingPointAdder1/sra_56/n398
*371 FloatingPointAdder1/sra_56/U306
*372 FloatingPointAdder1/sra_56/n396
*373 input_reg2\[22\]
*374 FloatingPointAdder1/U377
*375 input_reg2_reg_22_
*376 FloatingPointAdder1/sra_56/U1
*377 FloatingPointAdder1/sra_56/U392
*378 FloatingPointAdder1/sra_56/U354
*379 FloatingPointAdder1/sra_56/U202
*380 FloatingPointAdder1/sra_56/n143
*381 FloatingPointAdder1/sra_56/U150
*382 FloatingPointAdder1/sra_56/n19
*383 FloatingPointAdder1/sra_56/U10
*384 FloatingPointAdder1/sra_56/U6
*385 FloatingPointAdder1/sra_56/n169
*386 FloatingPointAdder1/sra_56/U390
*387 FloatingPointAdder1/sra_56/U161
*388 FloatingPointAdder1/sra_56/n168
*389 FloatingPointAdder1/sra_56/U112
*390 FloatingPointAdder1/sra_56/n64
*391 FloatingPointAdder1/sra_56/n130
*392 FloatingPointAdder1/sra_56/U212
*393 FloatingPointAdder1/sra_56/n7
*394 FloatingPointAdder1/sra_56/U387
*395 FloatingPointAdder1/sra_56/U22
*396 FloatingPointAdder1/sra_56/n279
*397 FloatingPointAdder1/sra_56/U208
*398 FloatingPointAdder1/sra_56/n47
*399 FloatingPointAdder1/sra_56/U386
*400 FloatingPointAdder1/sra_56/U84
*401 FloatingPointAdder1/sra_56/n237
*402 FloatingPointAdder1/sra_56/U216
*403 FloatingPointAdder1/sra_56/n63
*404 FloatingPointAdder1/sra_56/U339
*405 FloatingPointAdder1/sra_56/U160
*406 FloatingPointAdder1/sra_56/n171
*407 FloatingPointAdder1/sra_56/U99
*408 FloatingPointAdder1/sra_56/U23
*409 FloatingPointAdder1/sra_56/U347
*410 FloatingPointAdder1/sra_56/U346
*411 FloatingPointAdder1/sra_56/U337
*412 FloatingPointAdder1/sra_56/n191
*413 FloatingPointAdder1/sra_56/n258
*414 FloatingPointAdder1/sra_56/U384
*415 FloatingPointAdder1/sra_56/U355
*416 FloatingPointAdder1/sra_56/U229
*417 FloatingPointAdder1/sra_56/U145
*418 FloatingPointAdder1/sra_56/U89
*419 FloatingPointAdder1/sra_56/U75
*420 FloatingPointAdder1/sra_56/n352
*421 FloatingPointAdder1/sra_56/U263
*422 FloatingPointAdder1/sra_56/n232
*423 FloatingPointAdder1/sra_56/U383
*424 FloatingPointAdder1/sra_56/U352
*425 FloatingPointAdder1/sra_56/U231
*426 FloatingPointAdder1/sra_56/U134
*427 FloatingPointAdder1/sra_56/U87
*428 FloatingPointAdder1/sra_56/U76
*429 FloatingPointAdder1/sra_56/n335
*430 FloatingPointAdder1/sra_56/U293
*431 FloatingPointAdder1/sra_56/n54
*432 FloatingPointAdder1/sra_56/U43
*433 FloatingPointAdder1/sra_56/U13
*434 FloatingPointAdder1/sra_56/n242
*435 FloatingPointAdder1/sra_56/U382
*436 FloatingPointAdder1/sra_56/U351
*437 FloatingPointAdder1/sra_56/U228
*438 FloatingPointAdder1/sra_56/n358
*439 FloatingPointAdder1/sra_56/U266
*440 FloatingPointAdder1/sra_56/n248
*441 FloatingPointAdder1/sra_56/U381
*442 FloatingPointAdder1/sra_56/U242
*443 FloatingPointAdder1/sra_56/U154
*444 FloatingPointAdder1/sra_56/n370
*445 FloatingPointAdder1/sra_56/U267
*446 FloatingPointAdder1/sra_56/n222
*447 FloatingPointAdder1/sra_56/U380
*448 FloatingPointAdder1/sra_56/U353
*449 FloatingPointAdder1/sra_56/U234
*450 FloatingPointAdder1/sra_56/U169
*451 FloatingPointAdder1/sra_56/n342
*452 FloatingPointAdder1/sra_56/U297
*453 FloatingPointAdder1/sra_56/n235
*454 FloatingPointAdder1/sra_56/U379
*455 FloatingPointAdder1/sra_56/U365
*456 FloatingPointAdder1/sra_56/U279
*457 FloatingPointAdder1/sra_56/U180
*458 FloatingPointAdder1/sra_56/n234
*459 FloatingPointAdder1/sra_56/U328
*460 FloatingPointAdder1/sra_56/n225
*461 FloatingPointAdder1/sra_56/U378
*462 FloatingPointAdder1/sra_56/U364
*463 FloatingPointAdder1/sra_56/U276
*464 FloatingPointAdder1/sra_56/U137
*465 FloatingPointAdder1/sra_56/n224
*466 FloatingPointAdder1/sra_56/U295
*467 FloatingPointAdder1/sra_56/n261
*468 FloatingPointAdder1/sra_56/U377
*469 FloatingPointAdder1/sra_56/U372
*470 FloatingPointAdder1/sra_56/U362
*471 FloatingPointAdder1/sra_56/n260
*472 FloatingPointAdder1/sra_56/U320
*473 FloatingPointAdder1/sra_56/n262
*474 FloatingPointAdder1/sra_56/U376
*475 FloatingPointAdder1/sra_56/U305
*476 FloatingPointAdder1/sra_56/U304
*477 FloatingPointAdder1/sra_56/U287
*478 FloatingPointAdder1/sra_56/U139
*479 FloatingPointAdder1/sra_56/n327
*480 FloatingPointAdder1/sra_56/U259
*481 FloatingPointAdder1/sra_56/n214
*482 FloatingPointAdder1/sra_56/U375
*483 FloatingPointAdder1/sra_56/U361
*484 FloatingPointAdder1/sra_56/U277
*485 FloatingPointAdder1/sra_56/n212
*486 FloatingPointAdder1/sra_56/U260
*487 FloatingPointAdder1/sra_56/n251
*488 FloatingPointAdder1/sra_56/U374
*489 FloatingPointAdder1/sra_56/U363
*490 FloatingPointAdder1/sra_56/U275
*491 FloatingPointAdder1/sra_56/U147
*492 FloatingPointAdder1/sra_56/n250
*493 FloatingPointAdder1/sra_56/U298
*494 FloatingPointAdder1/sra_56/U27
*495 input_reg2\[3\]
*496 FloatingPointAdder1/sra_56/U236
*497 FloatingPointAdder1/U71
*498 input_reg2_reg_3_
*499 FloatingPointAdder1/sra_56/n275
*500 FloatingPointAdder1/sra_56/n252
*501 FloatingPointAdder1/sra_56/U299
*502 FloatingPointAdder1/sra_56/U237
*503 FloatingPointAdder1/sra_56/U131
*504 FloatingPointAdder1/sra_56/n73
*505 FloatingPointAdder1/sra_56/U119
*506 FloatingPointAdder1/sra_56/U322
*507 FloatingPointAdder1/sra_56/U215
*508 FloatingPointAdder1/sra_56/U207
*509 FloatingPointAdder1/sra_56/U194
*510 FloatingPointAdder1/sra_56/U28
*511 FloatingPointAdder1/sra_56/n310
*512 FloatingPointAdder1/sra_56/U291
*513 FloatingPointAdder1/sra_56/n226
*514 FloatingPointAdder1/sra_56/U371
*515 FloatingPointAdder1/sra_56/U282
*516 FloatingPointAdder1/sra_56/U233
*517 FloatingPointAdder1/sra_56/U172
*518 FloatingPointAdder1/sra_56/n307
*519 FloatingPointAdder1/sra_56/U178
*520 input_reg2\[19\]
*521 FloatingPointAdder1/sra_56/U227
*522 FloatingPointAdder1/U374
*523 input_reg2_reg_19_
*524 FloatingPointAdder1/sra_56/n290
*525 FloatingPointAdder1/sra_56/n236
*526 FloatingPointAdder1/sra_56/U369
*527 FloatingPointAdder1/sra_56/U284
*528 FloatingPointAdder1/sra_56/U230
*529 FloatingPointAdder1/sra_56/U53
*530 FloatingPointAdder1/sra_56/n301
*531 FloatingPointAdder1/sra_56/U165
*532 FloatingPointAdder1/sra_56/n321
*533 FloatingPointAdder1/sra_56/U368
*534 FloatingPointAdder1/sra_56/U141
*535 FloatingPointAdder1/sra_56/n134
*536 FloatingPointAdder1/N94
*537 FloatingPointAdder1/sra_56/n312
*538 FloatingPointAdder1/sra_56/U366
*539 FloatingPointAdder1/sra_56/U294
*540 FloatingPointAdder1/sra_56/U203
*541 FloatingPointAdder1/sra_56/U201
*542 FloatingPointAdder1/sra_56/U54
*543 input_reg2\[17\]
*544 FloatingPointAdder1/sra_56/U56
*545 FloatingPointAdder1/U372
*546 input_reg2_reg_17_
*547 FloatingPointAdder1/sra_56/n311
*548 FloatingPointAdder1/sra_56/U50
*549 FloatingPointAdder1/sra_56/n83
*550 FloatingPointAdder1/sra_56/U357
*551 FloatingPointAdder1/sra_56/U356
*552 FloatingPointAdder1/sra_56/U290
*553 FloatingPointAdder1/sra_56/n350
*554 FloatingPointAdder1/sra_56/U159
*555 FloatingPointAdder1/sra_56/n70
*556 FloatingPointAdder1/sra_56/U256
*557 FloatingPointAdder1/sra_56/n333
*558 FloatingPointAdder1/sra_56/U171
*559 FloatingPointAdder1/sra_56/n356
*560 FloatingPointAdder1/sra_56/U130
*561 FloatingPointAdder1/sra_56/n368
*562 FloatingPointAdder1/sra_56/U138
*563 FloatingPointAdder1/sra_56/n340
*564 FloatingPointAdder1/sra_56/U251
*565 FloatingPointAdder1/sra_56/n82
*566 FloatingPointAdder1/sra_56/U360
*567 FloatingPointAdder1/sra_56/U359
*568 FloatingPointAdder1/sra_56/U358
*569 FloatingPointAdder1/sra_56/U289
*570 FloatingPointAdder1/sra_56/n231
*571 FloatingPointAdder1/sra_56/U280
*572 FloatingPointAdder1/sra_56/U232
*573 FloatingPointAdder1/sra_56/U92
*574 FloatingPointAdder1/sra_56/n230
*575 FloatingPointAdder1/sra_56/U133
*576 FloatingPointAdder1/sra_56/n221
*577 FloatingPointAdder1/sra_56/U281
*578 FloatingPointAdder1/sra_56/U235
*579 FloatingPointAdder1/sra_56/U83
*580 FloatingPointAdder1/sra_56/n220
*581 FloatingPointAdder1/sra_56/U168
*582 FloatingPointAdder1/sra_56/n257
*583 FloatingPointAdder1/sra_56/U303
*584 FloatingPointAdder1/sra_56/U302
*585 FloatingPointAdder1/sra_56/U286
*586 FloatingPointAdder1/sra_56/U49
*587 FloatingPointAdder1/sra_56/n256
*588 FloatingPointAdder1/sra_56/U144
*589 FloatingPointAdder1/sra_56/n208
*590 FloatingPointAdder1/sra_56/U316
*591 FloatingPointAdder1/sra_56/U179
*592 FloatingPointAdder1/sra_56/n207
*593 FloatingPointAdder1/sra_56/U174
*594 FloatingPointAdder1/sra_56/n247
*595 FloatingPointAdder1/sra_56/U283
*596 FloatingPointAdder1/sra_56/U142
*597 FloatingPointAdder1/sra_56/n246
*598 FloatingPointAdder1/sra_56/U153
*599 FloatingPointAdder1/sra_56/n325
*600 FloatingPointAdder1/sra_56/U156
*601 FloatingPointAdder1/sra_56/n241
*602 FloatingPointAdder1/sra_56/n23
*603 FloatingPointAdder1/sra_56/n239
*604 FloatingPointAdder1/sra_56/n305
*605 FloatingPointAdder1/sra_56/U177
*606 FloatingPointAdder1/sra_56/n299
*607 FloatingPointAdder1/sra_56/U164
*608 FloatingPointAdder1/sra_56/n319
*609 FloatingPointAdder1/sra_56/U140
*610 FloatingPointAdder1/sra_56/n387
*611 FloatingPointAdder1/sra_56/U350
*612 FloatingPointAdder1/sra_56/U313
*613 FloatingPointAdder1/sra_56/n388
*614 FloatingPointAdder1/sra_56/n378
*615 FloatingPointAdder1/sra_56/U31
*616 FloatingPointAdder1/sra_56/n145
*617 FloatingPointAdder1/sra_56/U349
*618 FloatingPointAdder1/sra_56/U218
*619 FloatingPointAdder1/sra_56/U185
*620 FloatingPointAdder1/sra_56/n183
*621 FloatingPointAdder1/sra_56/U24
*622 FloatingPointAdder1/sra_56/n384
*623 FloatingPointAdder1/sra_56/U348
*624 FloatingPointAdder1/sra_56/U329
*625 FloatingPointAdder1/sra_56/n385
*626 FloatingPointAdder1/sra_56/n379
*627 FloatingPointAdder1/sra_56/n400
*628 FloatingPointAdder1/sra_56/U146
*629 FloatingPointAdder1/sra_56/n401
*630 FloatingPointAdder1/sra_56/U314
*631 FloatingPointAdder1/sra_56/n395
*632 FloatingPointAdder1/sra_56/n170
*633 FloatingPointAdder1/sra_56/U136
*634 FloatingPointAdder1/sra_56/U116
*635 FloatingPointAdder1/sra_56/n167
*636 FloatingPointAdder1/sra_56/n96
*637 FloatingPointAdder1/sra_56/U345
*638 FloatingPointAdder1/sra_56/U132
*639 FloatingPointAdder1/sra_56/n157
*640 FloatingPointAdder1/sra_56/n48
*641 FloatingPointAdder1/sra_56/U344
*642 FloatingPointAdder1/sra_56/U86
*643 FloatingPointAdder1/sra_56/n147
*644 FloatingPointAdder1/sra_56/U7
*645 FloatingPointAdder1/sra_56/n117
*646 FloatingPointAdder1/sra_56/U191
*647 FloatingPointAdder1/sra_56/n55
*648 FloatingPointAdder1/sra_56/U342
*649 FloatingPointAdder1/sra_56/U94
*650 FloatingPointAdder1/sra_56/n109
*651 FloatingPointAdder1/sra_56/U115
*652 FloatingPointAdder1/sra_56/n98
*653 FloatingPointAdder1/sra_56/U341
*654 FloatingPointAdder1/sra_56/U319
*655 FloatingPointAdder1/sra_56/U143
*656 FloatingPointAdder1/sra_56/n93
*657 FloatingPointAdder1/sra_56/U121
*658 FloatingPointAdder1/sra_56/n198
*659 FloatingPointAdder1/sra_56/U340
*660 FloatingPointAdder1/sra_56/n328
*661 FloatingPointAdder1/sra_56/n277
*662 FloatingPointAdder1/sra_56/n238
*663 FloatingPointAdder1/sra_56/n195
*664 FloatingPointAdder1/sra_56/U210
*665 FloatingPointAdder1/sra_56/n165
*666 FloatingPointAdder1/sra_56/U336
*667 FloatingPointAdder1/sra_56/n166
*668 FloatingPointAdder1/sra_56/n164
*669 FloatingPointAdder1/sra_56/U16
*670 FloatingPointAdder1/sra_56/n40
*671 FloatingPointAdder1/sra_56/U335
*672 FloatingPointAdder1/sra_56/n284
*673 FloatingPointAdder1/sra_56/n392
*674 FloatingPointAdder1/sra_56/n282
*675 FloatingPointAdder1/sra_56/U334
*676 FloatingPointAdder1/sra_56/n283
*677 FloatingPointAdder1/sra_56/n281
*678 FloatingPointAdder1/sra_56/n373
*679 FloatingPointAdder1/sra_56/U44
*680 FloatingPointAdder1/sra_56/n266
*681 FloatingPointAdder1/sra_56/U332
*682 FloatingPointAdder1/sra_56/n268
*683 FloatingPointAdder1/sra_56/n389
*684 FloatingPointAdder1/sra_56/n274
*685 FloatingPointAdder1/sra_56/U330
*686 FloatingPointAdder1/sra_56/n276
*687 input_reg2\[1\]
*688 FloatingPointAdder1/sra_56/U248
*689 FloatingPointAdder1/U156
*690 FloatingPointAdder1/U82
*691 input_reg2_reg_1_
*692 FloatingPointAdder1/sra_56/n271
*693 FloatingPointAdder1/sra_56/U309
*694 FloatingPointAdder1/sra_56/U308
*695 FloatingPointAdder1/sra_56/n273
*696 FloatingPointAdder1/sra_56/n233
*697 FloatingPointAdder1/sra_56/n227
*698 FloatingPointAdder1/sra_56/n174
*699 FloatingPointAdder1/sra_56/U70
*700 FloatingPointAdder1/sra_56/n94
*701 FloatingPointAdder1/sra_56/n267
*702 FloatingPointAdder1/sra_56/U249
*703 FloatingPointAdder1/sra_56/n390
*704 FloatingPointAdder1/sra_56/n182
*705 FloatingPointAdder1/sra_56/n138
*706 FloatingPointAdder1/sra_56/n180
*707 FloatingPointAdder1/sra_56/U97
*708 FloatingPointAdder1/sra_56/n371
*709 FloatingPointAdder1/sra_56/U45
*710 FloatingPointAdder1/N91
*711 FloatingPointAdder1/U181
*712 FloatingPointAdder1/sra_56/n259
*713 FloatingPointAdder1/sra_56/n253
*714 FloatingPointAdder1/sra_56/n173
*715 FloatingPointAdder1/sra_56/n172
*716 FloatingPointAdder1/sra_56/U88
*717 FloatingPointAdder1/N92
*718 FloatingPointAdder1/sra_56/n337
*719 FloatingPointAdder1/sra_56/n338
*720 FloatingPointAdder1/sra_56/n71
*721 FloatingPointAdder1/sra_56/U67
*722 FloatingPointAdder1/sra_56/U120
*723 FloatingPointAdder1/sra_56/U33
*724 FloatingPointAdder1/sra_56/n341
*725 FloatingPointAdder1/sra_56/n137
*726 FloatingPointAdder1/sra_56/U91
*727 FloatingPointAdder1/N93
*728 FloatingPointAdder1/U135
*729 FloatingPointAdder1/sra_56/n287
*730 FloatingPointAdder1/sra_56/n286
*731 FloatingPointAdder1/sra_56/U301
*732 FloatingPointAdder1/sra_56/n393
*733 FloatingPointAdder1/sra_56/n151
*734 FloatingPointAdder1/sra_56/U311
*735 FloatingPointAdder1/sra_56/n149
*736 input_reg2\[5\]
*737 FloatingPointAdder1/U65
*738 FloatingPointAdder1/U64
*739 input_reg2_reg_5_
*740 FloatingPointAdder1/sra_56/n272
*741 FloatingPointAdder1/sra_56/n270
*742 FloatingPointAdder1/sra_56/n383
*743 FloatingPointAdder1/sra_56/U204
*744 FloatingPointAdder1/sra_56/n291
*745 FloatingPointAdder1/sra_56/n292
*746 input_reg2\[14\]
*747 FloatingPointAdder1/U369
*748 input_reg2_reg_14_
*749 input_reg2\[15\]
*750 FloatingPointAdder1/U370
*751 input_reg2_reg_15_
*752 input_reg2\[21\]
*753 FloatingPointAdder1/U376
*754 input_reg2_reg_21_
*755 FloatingPointAdder1/sra_56/n175
*756 FloatingPointAdder1/sra_56/U96
*757 FloatingPointAdder1/sra_56/n72
*758 FloatingPointAdder1/sra_56/U129
*759 FloatingPointAdder1/sra_56/U58
*760 FloatingPointAdder1/sra_56/U26
*761 FloatingPointAdder1/sra_56/n249
*762 FloatingPointAdder1/sra_56/n243
*763 FloatingPointAdder1/sra_56/n223
*764 FloatingPointAdder1/sra_56/n217
*765 FloatingPointAdder1/sra_56/U167
*766 input_reg2\[2\]
*767 FloatingPointAdder1/sra_56/U243
*768 input_reg2_reg_2_
*769 FloatingPointAdder1/sra_56/n334
*770 FloatingPointAdder1/sra_56/n330
*771 FloatingPointAdder1/sra_56/U170
*772 FloatingPointAdder1/sra_56/n152
*773 FloatingPointAdder1/sra_56/n148
*774 FloatingPointAdder1/sra_56/n309
*775 FloatingPointAdder1/sra_56/n121
*776 FloatingPointAdder1/sra_56/U73
*777 FloatingPointAdder1/sra_56/U21
*778 FloatingPointAdder1/sra_56/n24
*779 FloatingPointAdder1/sra_56/n404
*780 FloatingPointAdder1/sra_56/n213
*781 FloatingPointAdder1/sra_56/U65
*782 FloatingPointAdder1/sra_56/n369
*783 FloatingPointAdder1/sra_56/n216
*784 FloatingPointAdder1/sra_56/U285
*785 FloatingPointAdder1/sra_56/U173
*786 FloatingPointAdder1/sra_56/n211
*787 FloatingPointAdder1/sra_56/n357
*788 FloatingPointAdder1/sra_56/n351
*789 FloatingPointAdder1/sra_56/n326
*790 FloatingPointAdder1/sra_56/n306
*791 FloatingPointAdder1/sra_56/n300
*792 FloatingPointAdder1/sra_56/n320
*793 FloatingPointAdder1/sra_56/n66
*794 FloatingPointAdder1/sra_56/U17
*795 FloatingPointAdder1/sra_56/n160
*796 FloatingPointAdder1/sra_56/n141
*797 FloatingPointAdder1/sra_56/U250
*798 FloatingPointAdder1/sra_56/n150
*799 FloatingPointAdder1/sra_56/n123
*800 FloatingPointAdder1/sra_56/n315
*801 FloatingPointAdder1/sra_56/U126
*802 FloatingPointAdder1/sra_56/n74
*803 FloatingPointAdder1/sra_56/U221
*804 FloatingPointAdder1/sra_56/U95
*805 FloatingPointAdder1/sra_56/n111
*806 FloatingPointAdder1/sra_56/n110
*807 FloatingPointAdder1/sra_56/n90
*808 FloatingPointAdder1/sra_56/n158
*809 FloatingPointAdder1/sra_56/n39
*810 FloatingPointAdder1/sra_56/U255
*811 FloatingPointAdder1/sra_56/n365
*812 FloatingPointAdder1/sra_56/U64
*813 FloatingPointAdder1/sra_56/n353
*814 FloatingPointAdder1/sra_56/n29
*815 FloatingPointAdder1/sra_56/n347
*816 FloatingPointAdder1/sra_56/U158
*817 FloatingPointAdder1/sra_56/n215
*818 FloatingPointAdder1/sra_56/n204
*819 FloatingPointAdder1/sra_56/n322
*820 FloatingPointAdder1/sra_56/n205
*821 FloatingPointAdder1/sra_56/n57
*822 FloatingPointAdder1/sra_56/n155
*823 FloatingPointAdder1/sra_56/n339
*824 FloatingPointAdder1/sra_56/n366
*825 FloatingPointAdder1/sra_56/n41
*826 FloatingPointAdder1/sra_56/n265
*827 FloatingPointAdder1/sra_56/n210
*828 FloatingPointAdder1/sra_56/n26
*829 FloatingPointAdder1/sra_56/U214
*830 FloatingPointAdder1/sra_56/U239
*831 FloatingPointAdder1/sra_56/U190
*832 FloatingPointAdder1/sra_56/n92
*833 FloatingPointAdder1/sra_56/n88
*834 FloatingPointAdder1/N100
*835 FloatingPointAdder1/U365
*836 FloatingPointAdder1/N110
*837 FloatingPointAdder1/N101
*838 FloatingPointAdder1/U85
*839 FloatingPointAdder1/sra_56/n197
*840 FloatingPointAdder1/sra_56/U238
*841 FloatingPointAdder1/sra_56/n199
*842 FloatingPointAdder1/sra_56/n59
*843 FloatingPointAdder1/sra_56/n196
*844 FloatingPointAdder1/sra_56/n202
*845 FloatingPointAdder1/sra_56/U217
*846 FloatingPointAdder1/N105
*847 input_reg2\[18\]
*848 FloatingPointAdder1/U373
*849 input_reg2_reg_18_
*850 input_reg2\[7\]
*851 FloatingPointAdder1/U89
*852 input_reg2_reg_7_
*853 input_reg2\[6\]
*854 FloatingPointAdder1/U87
*855 FloatingPointAdder1/U5
*856 input_reg2_reg_6_
*857 input_reg2\[11\]
*858 FloatingPointAdder1/U366
*859 input_reg2_reg_11_
*860 input_reg2\[9\]
*861 input_reg2_reg_9_
*862 input_reg2\[10\]
*863 input_reg2_reg_10_
*864 input_reg2\[13\]
*865 FloatingPointAdder1/U368
*866 input_reg2_reg_13_
*867 FloatingPointAdder1/sra_56/n125
*868 FloatingPointAdder1/sra_56/n142
*869 FloatingPointAdder1/sra_56/U220
*870 FloatingPointAdder1/N113
*871 FloatingPointAdder1/sra_56/n360
*872 FloatingPointAdder1/sra_56/n16
*873 FloatingPointAdder1/sra_56/n201
*874 FloatingPointAdder1/N104
*875 FloatingPointAdder1/sra_56/n313
*876 FloatingPointAdder1/sra_56/n294
*877 FloatingPointAdder1/N102
*878 FloatingPointAdder1/sra_56/n153
*879 FloatingPointAdder1/sra_56/U211
*880 FloatingPointAdder1/N112
*881 FloatingPointAdder1/sra_56/n192
*882 FloatingPointAdder1/sra_56/U209
*883 FloatingPointAdder1/sra_56/n2
*884 FloatingPointAdder1/sra_56/n193
*885 FloatingPointAdder1/N106
*886 FloatingPointAdder1/sra_56/n278
*887 FloatingPointAdder1/sra_56/n263
*888 FloatingPointAdder1/N103
*889 FloatingPointAdder1/N111
*890 input_reg2\[0\]
*891 input_reg2_reg_0_
*892 FloatingPointAdder1/sra_56/n285
*893 FloatingPointAdder1/sra_56/n112
*894 FloatingPointAdder1/sra_56/U41
*895 FloatingPointAdder1/sra_56/n107